!-Generator IDFEditor 1.51
!-Option SortedOrder

!-NOTE: All comments with '!-' are ignored by the IDFEditor and are generated automatically.
!-      Use '!' comments if they need to be retained when using the IDFEditor.


!-   ===========  ALL OBJECTS IN CLASS: VERSION ===========

Version,
    9.4;                     !- Version Identifier


!-   ===========  ALL OBJECTS IN CLASS: SIMULATIONCONTROL ===========

SimulationControl,
    Yes,                     !- Do Zone Sizing Calculation
    Yes,                     !- Do System Sizing Calculation
    Yes,                     !- Do Plant Sizing Calculation
    No,                      !- Run Simulation for Sizing Periods
    Yes,                     !- Run Simulation for Weather File Run Periods
    No,                      !- Do HVAC Sizing Simulation for Sizing Periods
    ;                        !- Maximum Number of HVAC Sizing Simulation Passes


!-   ===========  ALL OBJECTS IN CLASS: BUILDING ===========

Building,
    Building 1,              !- Name
    -0,                      !- North Axis {deg}
    City,                    !- Terrain
    ,                        !- Loads Convergence Tolerance Value {W}
    ,                        !- Temperature Convergence Tolerance Value {deltaC}
  FullInteriorAndExteriorWithReflections,    !- Solar Distribution <<< MODIFY - Change simulation fidelity (value given is method of solar reflection calculation and can be one of [MinimalShadowing, FullExterior, FullExteriorWithReflections, FullInteriorAndExterior, FulInteriorAndlExteriorWithReflections]
    25,                      !- Maximum Number of Warmup Days
  5;                                       !- Minimum Number of Warmup Days <<< MODIFY - Change number of days preconditioning before returning simulation results. This value should be less than 25, and enables values to converge where unstable prior to reporting results. Higher values result in longer simulation times


!-   ===========  ALL OBJECTS IN CLASS: SHADOWCALCULATION ===========

ShadowCalculation,
    PolygonClipping,         !- Shading Calculation Method
    Periodic,                !- Shading Calculation Update Frequency Method
    30,                      !- Shading Calculation Update Frequency
    15000,                   !- Maximum Figures in Shadow Overlap Calculations
    SutherlandHodgman,       !- Polygon Clipping Algorithm
    512,                     !- Pixel Counting Resolution
    SimpleSkyDiffuseModeling,!- Sky Diffuse Modeling Algorithm
    No,                      !- Output External Shading Calculation Results
    No,                      !- Disable Self-Shading Within Shading Zone Groups
    No;                      !- Disable Self-Shading From Shading Zone Groups to Other Zones


!-   ===========  ALL OBJECTS IN CLASS: SURFACECONVECTIONALGORITHM:INSIDE ===========

SurfaceConvectionAlgorithm:Inside,
    TARP;                  !- Algorithm <<<SurfaceConvectionAlgorithm:Inside, Line 57 'Simple'  'TARP'


!-   ===========  ALL OBJECTS IN CLASS: SURFACECONVECTIONALGORITHM:OUTSIDE ===========

SurfaceConvectionAlgorithm:Outside,
DOE-2;          !- Algorithm       SurfaceConvectionAlgorithm:Outside,  Line 63   'SimpleCombined'    'DOE-2'


!-   ===========  ALL OBJECTS IN CLASS: HEATBALANCEALGORITHM ===========

HeatBalanceAlgorithm,
    ConductionTransferFunction,  !- Algorithm
    200;                     !- Surface Temperature Upper Limit {C}


!-   ===========  ALL OBJECTS IN CLASS: TIMESTEP ===========

Timestep,
  *****;                                     !- Number of Timesteps per Hour <<< MODIFY - Change simulation fidelity (value given is number of timesteps per hour and can be one of [1, 2, 3, 4, 5, 6, 10, 20, 30, 60]



!-   ===========  ALL OBJECTS IN CLASS: SITE:LOCATION ===========

Site:Location,
    Site 1,                  !- Name
    0,                       !- Latitude {deg}
    0,                       !- Longitude {deg}
    0,                       !- Time Zone {hr}
    0;                       !- Elevation {m}


!-   ===========  ALL OBJECTS IN CLASS: SIZINGPERIOD:DESIGNDAY ===========

SizingPeriod:DesignDay,
    0.4% Cooling Design Day for Hong Kong Intl AP,  !- Name
    7,                       !- Month
    21,                      !- Day of Month
    SummerDesignDay,         !- Day Type
    32.1,                    !- Maximum Dry-Bulb Temperature {C}
    3.7,                     !- Daily Dry-Bulb Temperature Range {deltaC}
    DefaultMultipliers,      !- Dry-Bulb Temperature Range Modifier Type
    ,                        !- Dry-Bulb Temperature Range Modifier Day Schedule Name
    Wetbulb,                 !- Humidity Condition Type
    26.4,                    !- Wetbulb or DewPoint at Maximum Dry-Bulb {C}
    ,                        !- Humidity Condition Day Schedule Name
    ,                        !- Humidity Ratio at Maximum Dry-Bulb {kgWater/kgDryAir}
    ,                        !- Enthalpy at Maximum Dry-Bulb {J/kg}
    ,                        !- Daily Wet-Bulb Temperature Range {deltaC}
    101324,                  !- Barometric Pressure {Pa}
    3.2,                     !- Wind Speed {m/s}
    217,                     !- Wind Direction {deg}
    No,                      !- Rain Indicator
    No,                      !- Snow Indicator
    No,                      !- Daylight Saving Time Indicator
    ASHRAEClearSky,          !- Solar Model Indicator
    ,                        !- Beam Solar Day Schedule Name
    ,                        !- Diffuse Solar Day Schedule Name
    ,                        !- ASHRAE Clear Sky Optical Depth for Beam Irradiance (taub) {dimensionless}
    ,                        !- ASHRAE Clear Sky Optical Depth for Diffuse Irradiance (taud) {dimensionless}
    1;                       !- Sky Clearness

SizingPeriod:DesignDay,
    99.6% Heating Design Day for Hong Kong Intl AP,  !- Name
    1,                       !- Month
    21,                      !- Day of Month
    WinterDesignDay,         !- Day Type
    10.7,                    !- Maximum Dry-Bulb Temperature {C}
    0,                       !- Daily Dry-Bulb Temperature Range {deltaC}
    DefaultMultipliers,      !- Dry-Bulb Temperature Range Modifier Type
    ,                        !- Dry-Bulb Temperature Range Modifier Day Schedule Name
    Wetbulb,                 !- Humidity Condition Type
    10.7,                    !- Wetbulb or DewPoint at Maximum Dry-Bulb {C}
    ,                        !- Humidity Condition Day Schedule Name
    ,                        !- Humidity Ratio at Maximum Dry-Bulb {kgWater/kgDryAir}
    ,                        !- Enthalpy at Maximum Dry-Bulb {J/kg}
    ,                        !- Daily Wet-Bulb Temperature Range {deltaC}
    101324,                  !- Barometric Pressure {Pa}
    2.1,                     !- Wind Speed {m/s}
    178,                     !- Wind Direction {deg}
    No,                      !- Rain Indicator
    No,                      !- Snow Indicator
    No,                      !- Daylight Saving Time Indicator
    ASHRAEClearSky,          !- Solar Model Indicator
    ,                        !- Beam Solar Day Schedule Name
    ,                        !- Diffuse Solar Day Schedule Name
    ,                        !- ASHRAE Clear Sky Optical Depth for Beam Irradiance (taub) {dimensionless}
    ,                        !- ASHRAE Clear Sky Optical Depth for Diffuse Irradiance (taud) {dimensionless}
    0;                       !- Sky Clearness


!-   ===========  ALL OBJECTS IN CLASS: RUNPERIOD ===========

RunPeriod,
    Run Period 1,            !- Name
    5,                       !- Begin Month
    14,                      !- Begin Day of Month
    2006,                    !- Begin Year
    5,                       !- End Month
    14,                      !- End Day of Month
    2006,                    !- End Year
    Sunday,                  !- Day of Week for Start Day
    No,                      !- Use Weather File Holidays and Special Days
    No,                      !- Use Weather File Daylight Saving Period
    No,                      !- Apply Weekend Holiday Rule
    Yes,                     !- Use Weather File Rain Indicators
    Yes;                     !- Use Weather File Snow Indicators


!-   ===========  ALL OBJECTS IN CLASS: SITE:WATERMAINSTEMPERATURE ===========

Site:WaterMainsTemperature,
    CorrelationFromWeatherFile;  !- Calculation Method


!-   ===========  ALL OBJECTS IN CLASS: SCHEDULETYPELIMITS ===========

ScheduleTypeLimits,
    Fractional,              !- Name
    0,                       !- Lower Limit Value
    1,                       !- Upper Limit Value
    Continuous,              !- Numeric Type
    dimensionless;           !- Unit Type

ScheduleTypeLimits,
    NORTH_DATAOFFICE_64fd18ff Thermostat Schedule Type Limits,  !- Name
    0,                       !- Lower Limit Value
    4,                       !- Upper Limit Value
    DISCRETE;                !- Numeric Type

ScheduleTypeLimits,
    Temperature,             !- Name
    ,                        !- Lower Limit Value
    ,                        !- Upper Limit Value
    Continuous,              !- Numeric Type
    temperature;             !- Unit Type

ScheduleTypeLimits,
    SOUTH_DATAOFFICE_0ffab39a Thermostat Schedule Type Limits,  !- Name
    0,                       !- Lower Limit Value
    4,                       !- Upper Limit Value
    DISCRETE;                !- Numeric Type

ScheduleTypeLimits,
    Activity Level,          !- Name
    0,                       !- Lower Limit Value
    ,                        !- Upper Limit Value
    Continuous,              !- Numeric Type
    activitylevel;           !- Unit Type

ScheduleTypeLimits,
    Fractional 1,            !- Name
    0,                       !- Lower Limit Value
    1,                       !- Upper Limit Value
    Continuous;              !- Numeric Type

ScheduleTypeLimits,
    OnOff,                   !- Name
    0,                       !- Lower Limit Value
    1,                       !- Upper Limit Value
    Discrete,                !- Numeric Type
    availability;            !- Unit Type

ScheduleTypeLimits,
    OnOff 1,                 !- Name
    0,                       !- Lower Limit Value
    1,                       !- Upper Limit Value
    Discrete,                !- Numeric Type
    availability;            !- Unit Type


!-   ===========  ALL OBJECTS IN CLASS: SCHEDULE:DAY:INTERVAL ===========

Schedule:Day:Interval,
    Always On_Day Schedule,  !- Name
    Fractional,              !- Schedule Type Limits Name
    No,                      !- Interpolate to Timestep
    24:00,                   !- Time 1 {hh:mm}
    1;                       !- Value Until Time 1

Schedule:Day:Interval,
    DATAOFFICE_HTGSETPOINT_0f95b65c_Sunday,  !- Name
    Temperature,             !- Schedule Type Limits Name
    No,                      !- Interpolate to Timestep
    24:00,                   !- Time 1 {hh:mm}
    0;                       !- Value Until Time 1

Schedule:Day:Interval,
    DATAOFFICE_HTGSETPOINT_0f95b65c_SmrDsn 1,  !- Name
    Temperature,             !- Schedule Type Limits Name
    No,                      !- Interpolate to Timestep
    24:00,                   !- Time 1 {hh:mm}
    25;                      !- Value Until Time 1

Schedule:Day:Interval,
    DATAOFFICE_HTGSETPOINT_0f95b65c_WntrDsn 1,  !- Name
    Temperature,             !- Schedule Type Limits Name
    No,                      !- Interpolate to Timestep
    24:00,                   !- Time 1 {hh:mm}
    21;                      !- Value Until Time 1

Schedule:Day:Interval,
    DATAOFFICE_HTGSETPOINT_0f95b65c_Hol 1,  !- Name
    Temperature,             !- Schedule Type Limits Name
    No,                      !- Interpolate to Timestep
    24:00,                   !- Time 1 {hh:mm}
    0;                       !- Value Until Time 1

Schedule:Day:Interval,
    DATAOFFICE_CLGSETPOINT_6c254ec0_Sunday,  !- Name
    Temperature,             !- Schedule Type Limits Name
    No,                      !- Interpolate to Timestep
    08:00,                   !- Time 1 {hh:mm}
    100,                     !- Value Until Time 1
    24:00,                   !- Time 2 {hh:mm}
    21.267;                   !- Value Until Time 2 <<< - Set value to change cooling set-back temperature overnight

Schedule:Day:Interval,
    DATAOFFICE_CLGSETPOINT_6c254ec0_SmrDsn 1,  !- Name
    Temperature,             !- Schedule Type Limits Name
    No,                      !- Interpolate to Timestep
    24:00,                   !- Time 1 {hh:mm}
    25;                      !- Value Until Time 1

Schedule:Day:Interval,
    DATAOFFICE_CLGSETPOINT_6c254ec0_WntrDsn 1,  !- Name
    Temperature,             !- Schedule Type Limits Name
    No,                      !- Interpolate to Timestep
    24:00,                   !- Time 1 {hh:mm}
    21;                      !- Value Until Time 1

Schedule:Day:Interval,
    DATAOFFICE_CLGSETPOINT_6c254ec0_Hol 1,  !- Name
    Temperature,             !- Schedule Type Limits Name
    No,                      !- Interpolate to Timestep
    08:00,                   !- Time 1 {hh:mm}
    100,                     !- Value Until Time 1
    24:00,                   !- Time 2 {hh:mm}
  21.267;                                   !- Value Until Time 2 <<< - Set value to change cooling set-back temperature overnight

Schedule:Day:Interval,
    Chilled Water Loop Temp - 44F Default,  !- Name
    Temperature,             !- Schedule Type Limits Name
    No,                      !- Interpolate to Timestep
    24:00,                   !- Time 1 {hh:mm}
    6.66666666666669;        !- Value Until Time 1

Schedule:Day:Interval,
    DATAOFFICE_ACTIVITY_de7bf007_Day Schedule,  !- Name
    Activity Level,          !- Schedule Type Limits Name
    No,                      !- Interpolate to Timestep
    24:00,                   !- Time 1 {hh:mm}
    150;                     !- Value Until Time 1

Schedule:Day:Interval,
    DATAOFFICE_CLGSETPOINT_6c254ec0_Hol,  !- Name
    Temperature,             !- Schedule Type Limits Name
    No,                      !- Interpolate to Timestep
    08:00,                   !- Time 1 {hh:mm}
    100,                     !- Value Until Time 1
    24:00,                   !- Time 2 {hh:mm}
  21.267;                                   !- Value Until Time 2 <<< - Set value to change cooling set-back temperature overnight

Schedule:Day:Interval,
    DATAOFFICE_CLGSETPOINT_6c254ec0_SmrDsn,  !- Name
    Temperature,             !- Schedule Type Limits Name
    No,                      !- Interpolate to Timestep
    24:00,                   !- Time 1 {hh:mm}
    25;                      !- Value Until Time 1

Schedule:Day:Interval,
    DATAOFFICE_CLGSETPOINT_6c254ec0_WntrDsn,  !- Name
    Temperature,             !- Schedule Type Limits Name
    No,                      !- Interpolate to Timestep
    24:00,                   !- Time 1 {hh:mm}
    21;                      !- Value Until Time 1

Schedule:Day:Interval,
    DATAOFFICE_EQUIPMENT_ae5e6caf_Hol,  !- Name
    Fractional,              !- Schedule Type Limits Name
    No,                      !- Interpolate to Timestep
    09:00,                   !- Time 1 {hh:mm}
  *****,                                      !- Value Until Time 1 <<< MODIFY X4 - Change the amount of equipment gains overnight
    11:00,                   !- Time 2 {hh:mm}
    0.299,                   !- Value Until Time 2
    12:00,                   !- Time 3 {hh:mm}
    0.436,                   !- Value Until Time 3
    14:00,                   !- Time 4 {hh:mm}
    0.573,                   !- Value Until Time 4
    15:00,                   !- Time 5 {hh:mm}
    0.644,                   !- Value Until Time 5
    18:00,                   !- Time 6 {hh:mm}
    0.785,                   !- Value Until Time 6
    19:00,                   !- Time 7 {hh:mm}
    0.577,                   !- Value Until Time 7
    20:00,                   !- Time 8 {hh:mm}
    0.507,                   !- Value Until Time 8
    21:00,                   !- Time 9 {hh:mm}
    0.573,                   !- Value Until Time 9
    24:00,                   !- Time 10 {hh:mm}
    0.503;                   !- Value Until Time 10

Schedule:Day:Interval,
    DATAOFFICE_EQUIPMENT_ae5e6caf_Hol 1,  !- Name
    Fractional,              !- Schedule Type Limits Name
    No,                      !- Interpolate to Timestep
    09:00,                   !- Time 1 {hh:mm}
  *****,                                      !- Value Until Time 1 <<< MODIFY X4 - Change the amount of equipment gains overnight
    11:00,                   !- Time 2 {hh:mm}
    0.299,                   !- Value Until Time 2
    12:00,                   !- Time 3 {hh:mm}
    0.436,                   !- Value Until Time 3
    14:00,                   !- Time 4 {hh:mm}
    0.573,                   !- Value Until Time 4
    15:00,                   !- Time 5 {hh:mm}
    0.644,                   !- Value Until Time 5
    18:00,                   !- Time 6 {hh:mm}
    0.785,                   !- Value Until Time 6
    19:00,                   !- Time 7 {hh:mm}
    0.577,                   !- Value Until Time 7
    20:00,                   !- Time 8 {hh:mm}
    0.507,                   !- Value Until Time 8
    21:00,                   !- Time 9 {hh:mm}
    0.573,                   !- Value Until Time 9
    24:00,                   !- Time 10 {hh:mm}
    0.503;                   !- Value Until Time 10

Schedule:Day:Interval,
    DATAOFFICE_EQUIPMENT_ae5e6caf_Monday,  !- Name
    Fractional,              !- Schedule Type Limits Name
    No,                      !- Interpolate to Timestep
    09:00,                   !- Time 1 {hh:mm}
  *****,                                      !- Value Until Time 1 <<< MODIFY X4 - Change the amount of equipment gains overnight
    10:00,                   !- Time 2 {hh:mm}
    0.473,                   !- Value Until Time 2
    11:00,                   !- Time 3 {hh:mm}
    0.482,                   !- Value Until Time 3
    12:00,                   !- Time 4 {hh:mm}
    0.494,                   !- Value Until Time 4
    13:00,                   !- Time 5 {hh:mm}
    0.486,                   !- Value Until Time 5
    14:00,                   !- Time 6 {hh:mm}
    0.494,                   !- Value Until Time 6
    15:00,                   !- Time 7 {hh:mm}
    0.573,                   !- Value Until Time 7
    16:00,                   !- Time 8 {hh:mm}
    0.677,                   !- Value Until Time 8
    18:00,                   !- Time 9 {hh:mm}
    0.71,                    !- Value Until Time 9
    19:00,                   !- Time 10 {hh:mm}
    1,                       !- Value Until Time 10
    20:00,                   !- Time 11 {hh:mm}
    0.635,                   !- Value Until Time 11
    21:00,                   !- Time 12 {hh:mm}
    0.656,                   !- Value Until Time 12
    22:00,                   !- Time 13 {hh:mm}
    0.611,                   !- Value Until Time 13
    23:00,                   !- Time 14 {hh:mm}
    0.494,                   !- Value Until Time 14
    24:00,                   !- Time 15 {hh:mm}
    0.411;                   !- Value Until Time 15

Schedule:Day:Interval,
    DATAOFFICE_EQUIPMENT_ae5e6caf_Monday_SmrDsn,  !- Name
    Fractional,              !- Schedule Type Limits Name
    No,                      !- Interpolate to Timestep
    09:00,                   !- Time 1 {hh:mm}
  *****,                                      !- Value Until Time 1 <<< MODIFY X4 - Change the amount of equipment gains overnight
    10:00,                   !- Time 2 {hh:mm}
    0.473,                   !- Value Until Time 2
    11:00,                   !- Time 3 {hh:mm}
    0.482,                   !- Value Until Time 3
    12:00,                   !- Time 4 {hh:mm}
    0.494,                   !- Value Until Time 4
    13:00,                   !- Time 5 {hh:mm}
    0.486,                   !- Value Until Time 5
    14:00,                   !- Time 6 {hh:mm}
    0.494,                   !- Value Until Time 6
    15:00,                   !- Time 7 {hh:mm}
    0.573,                   !- Value Until Time 7
    16:00,                   !- Time 8 {hh:mm}
    0.677,                   !- Value Until Time 8
    18:00,                   !- Time 9 {hh:mm}
    0.71,                    !- Value Until Time 9
    19:00,                   !- Time 10 {hh:mm}
    1,                       !- Value Until Time 10
    20:00,                   !- Time 11 {hh:mm}
    0.635,                   !- Value Until Time 11
    21:00,                   !- Time 12 {hh:mm}
    0.656,                   !- Value Until Time 12
    22:00,                   !- Time 13 {hh:mm}
    0.611,                   !- Value Until Time 13
    23:00,                   !- Time 14 {hh:mm}
    0.494,                   !- Value Until Time 14
    24:00,                   !- Time 15 {hh:mm}
    0.411;                   !- Value Until Time 15

Schedule:Day:Interval,
    DATAOFFICE_EQUIPMENT_ae5e6caf_Monday_SmrDsn 1,  !- Name
    Fractional,              !- Schedule Type Limits Name
    No,                      !- Interpolate to Timestep
    09:00,                   !- Time 1 {hh:mm}
  *****,                                      !- Value Until Time 1 <<< MODIFY X4 - Change the amount of equipment gains overnight
    10:00,                   !- Time 2 {hh:mm}
    0.473,                   !- Value Until Time 2
    11:00,                   !- Time 3 {hh:mm}
    0.482,                   !- Value Until Time 3
    12:00,                   !- Time 4 {hh:mm}
    0.494,                   !- Value Until Time 4
    13:00,                   !- Time 5 {hh:mm}
    0.486,                   !- Value Until Time 5
    14:00,                   !- Time 6 {hh:mm}
    0.494,                   !- Value Until Time 6
    15:00,                   !- Time 7 {hh:mm}
    0.573,                   !- Value Until Time 7
    16:00,                   !- Time 8 {hh:mm}
    0.677,                   !- Value Until Time 8
    18:00,                   !- Time 9 {hh:mm}
    0.71,                    !- Value Until Time 9
    19:00,                   !- Time 10 {hh:mm}
    1,                       !- Value Until Time 10
    20:00,                   !- Time 11 {hh:mm}
    0.635,                   !- Value Until Time 11
    21:00,                   !- Time 12 {hh:mm}
    0.656,                   !- Value Until Time 12
    22:00,                   !- Time 13 {hh:mm}
    0.611,                   !- Value Until Time 13
    23:00,                   !- Time 14 {hh:mm}
    0.494,                   !- Value Until Time 14
    24:00,                   !- Time 15 {hh:mm}
    0.411;                   !- Value Until Time 15

Schedule:Day:Interval,
    DATAOFFICE_EQUIPMENT_ae5e6caf_Monday_SmrDsn_WntrDsn,  !- Name
    Fractional,              !- Schedule Type Limits Name
    No,                      !- Interpolate to Timestep
    09:00,                   !- Time 1 {hh:mm}
  *****,                                      !- Value Until Time 1 <<< MODIFY X4 - Change the amount of equipment gains overnight
    11:00,                   !- Time 2 {hh:mm}
    0.299,                   !- Value Until Time 2
    12:00,                   !- Time 3 {hh:mm}
    0.436,                   !- Value Until Time 3
    14:00,                   !- Time 4 {hh:mm}
    0.573,                   !- Value Until Time 4
    15:00,                   !- Time 5 {hh:mm}
    0.644,                   !- Value Until Time 5
    18:00,                   !- Time 6 {hh:mm}
    0.785,                   !- Value Until Time 6
    19:00,                   !- Time 7 {hh:mm}
    0.577,                   !- Value Until Time 7
    20:00,                   !- Time 8 {hh:mm}
    0.507,                   !- Value Until Time 8
    21:00,                   !- Time 9 {hh:mm}
    0.573,                   !- Value Until Time 9
    24:00,                   !- Time 10 {hh:mm}
    0.503;                   !- Value Until Time 10

Schedule:Day:Interval,
    DATAOFFICE_EQUIPMENT_ae5e6caf_Monday_SmrDsn_WntrDsn 1,  !- Name
    Fractional,              !- Schedule Type Limits Name
    No,                      !- Interpolate to Timestep
    09:00,                   !- Time 1 {hh:mm}
  *****,                                      !- Value Until Time 1 <<< MODIFY X4 - Change the amount of equipment gains overnight
    11:00,                   !- Time 2 {hh:mm}
    0.299,                   !- Value Until Time 2
    12:00,                   !- Time 3 {hh:mm}
    0.436,                   !- Value Until Time 3
    14:00,                   !- Time 4 {hh:mm}
    0.573,                   !- Value Until Time 4
    15:00,                   !- Time 5 {hh:mm}
    0.644,                   !- Value Until Time 5
    18:00,                   !- Time 6 {hh:mm}
    0.785,                   !- Value Until Time 6
    19:00,                   !- Time 7 {hh:mm}
    0.577,                   !- Value Until Time 7
    20:00,                   !- Time 8 {hh:mm}
    0.507,                   !- Value Until Time 8
    21:00,                   !- Time 9 {hh:mm}
    0.573,                   !- Value Until Time 9
    24:00,                   !- Time 10 {hh:mm}
    0.503;                   !- Value Until Time 10

Schedule:Day:Interval,
    DATAOFFICE_EQUIPMENT_ae5e6caf_Saturday,  !- Name
    Fractional,              !- Schedule Type Limits Name
    No,                      !- Interpolate to Timestep
    09:00,                   !- Time 1 {hh:mm}
  *****,                                      !- Value Until Time 1 <<< MODIFY X4 - Change the amount of equipment gains overnight
    10:00,                   !- Time 2 {hh:mm}
    0.37,                    !- Value Until Time 2
    11:00,                   !- Time 3 {hh:mm}
    0.436,                   !- Value Until Time 3
    14:00,                   !- Time 4 {hh:mm}
    0.503,                   !- Value Until Time 4
    15:00,                   !- Time 5 {hh:mm}
    0.644,                   !- Value Until Time 5
    18:00,                   !- Time 6 {hh:mm}
    0.785,                   !- Value Until Time 6
    19:00,                   !- Time 7 {hh:mm}
    0.577,                   !- Value Until Time 7
    20:00,                   !- Time 8 {hh:mm}
    0.507,                   !- Value Until Time 8
    21:00,                   !- Time 9 {hh:mm}
    0.573,                   !- Value Until Time 9
    24:00,                   !- Time 10 {hh:mm}
    0.503;                   !- Value Until Time 10

Schedule:Day:Interval,
    DATAOFFICE_EQUIPMENT_ae5e6caf_Sunday,  !- Name
    Fractional,              !- Schedule Type Limits Name
    No,                      !- Interpolate to Timestep
    09:00,                   !- Time 1 {hh:mm}
  *****,                                      !- Value Until Time 1 <<< MODIFY X4 - Change the amount of equipment gains overnight
    11:00,                   !- Time 2 {hh:mm}
    0.299,                   !- Value Until Time 2
    12:00,                   !- Time 3 {hh:mm}
    0.436,                   !- Value Until Time 3
    14:00,                   !- Time 4 {hh:mm}
    0.573,                   !- Value Until Time 4
    15:00,                   !- Time 5 {hh:mm}
    0.644,                   !- Value Until Time 5
    18:00,                   !- Time 6 {hh:mm}
    0.785,                   !- Value Until Time 6
    19:00,                   !- Time 7 {hh:mm}
    0.577,                   !- Value Until Time 7
    20:00,                   !- Time 8 {hh:mm}
    0.507,                   !- Value Until Time 8
    21:00,                   !- Time 9 {hh:mm}
    0.573,                   !- Value Until Time 9
    24:00,                   !- Time 10 {hh:mm}
    0.503;                   !- Value Until Time 10

Schedule:Day:Interval,
    DATAOFFICE_HTGSETPOINT_0f95b65c_Hol,  !- Name
    Temperature,             !- Schedule Type Limits Name
    No,                      !- Interpolate to Timestep
    24:00,                   !- Time 1 {hh:mm}
    0;                       !- Value Until Time 1

Schedule:Day:Interval,
    DATAOFFICE_HTGSETPOINT_0f95b65c_SmrDsn,  !- Name
    Temperature,             !- Schedule Type Limits Name
    No,                      !- Interpolate to Timestep
    24:00,                   !- Time 1 {hh:mm}
    25;                      !- Value Until Time 1

Schedule:Day:Interval,
    DATAOFFICE_HTGSETPOINT_0f95b65c_WntrDsn,  !- Name
    Temperature,             !- Schedule Type Limits Name
    No,                      !- Interpolate to Timestep
    24:00,                   !- Time 1 {hh:mm}
    21;                      !- Value Until Time 1

Schedule:Day:Interval,
    DATAOFFICE_LIGHTING_e61e5fa8_Hol,  !- Name
    Fractional,              !- Schedule Type Limits Name
    No,                      !- Interpolate to Timestep
    09:00,                   !- Time 1 {hh:mm}
    0,                       !- Value Until Time 1
    24:00,                   !- Time 2 {hh:mm}
    1;                       !- Value Until Time 2

Schedule:Day:Interval,
    DATAOFFICE_LIGHTING_e61e5fa8_Hol 1,  !- Name
    Fractional,              !- Schedule Type Limits Name
    No,                      !- Interpolate to Timestep
    09:00,                   !- Time 1 {hh:mm}
    0,                       !- Value Until Time 1
    24:00,                   !- Time 2 {hh:mm}
    1;                       !- Value Until Time 2

Schedule:Day:Interval,
    DATAOFFICE_LIGHTING_e61e5fa8_Sunday,  !- Name
    Fractional,              !- Schedule Type Limits Name
    No,                      !- Interpolate to Timestep
    09:00,                   !- Time 1 {hh:mm}
    0,                       !- Value Until Time 1
    24:00,                   !- Time 2 {hh:mm}
    1;                       !- Value Until Time 2

Schedule:Day:Interval,
    DATAOFFICE_LIGHTING_e61e5fa8_Sunday_SmrDsn,  !- Name